/*--------------------------------*- C++ -*----------------------------------*\
| =========                 |                                                 |
| \\      /  F ield         | OpenFOAM: The Open Source CFD Toolbox           |
|  \\    /   O peration     | Version:  v2312                                 |
|   \\  /    A nd           | Website:  www.openfoam.com                      |
|    \\/     M anipulation  |                                                 |
\*---------------------------------------------------------------------------*/
FoamFile
{
    version     2.0;
    format      ascii;
    class       dictionary;
    object      fvSolution;
}
// * * * * * * * * * * * * * * * * * * * * * * * * * * * * * * * * * * * * * //

solvers
{
    p
    {
        solver          GAMG;
        tolerance       1e-05;
        relTol          0.1;
        smoother        GaussSeidel;
        nCellsInCoarsestLevel 10; // Ajusta según el tamaño del problema
        agglomerator    faceAreaPair; // Ajusta según el problema específico
    }

    U
    {
        solver          smoothSolver;
        smoother        symGaussSeidel;
        nSweeps         2;
        tolerance       1e-05;
        relTol          0.1;
    }

    nuTilda
    {
        solver          smoothSolver;
        smoother        symGaussSeidel;
        nSweeps         2;
        tolerance       1e-05;
        relTol          0.01;
    }
}

SIMPLE
{
    nNonOrthogonalCorrectors 2;

    residualControl
    {
        p               1e-06;
        U               1e-06;
        nuTilda         1e-06;
    }
}

relaxationFactors
{
    fields
    {
        p               0.6;
    }
    equations
    {
        U               0.3;
        nuTilda         0.3;
    }
}


// ************************************************************************* //
